Version 4
SHEET 1 1600 680
WIRE 0 192 0 384
WIRE 0 192 128 192
WIRE 128 192 192 192
WIRE 192 192 192 256
WIRE 192 256 192 384
WIRE 192 384 0 384
FLAG 0 384 0
FLAG 192 192 out
IOPIN 192 192 Out
SYMBOL voltage 0 192 R0
SYMATTR InstName V1
SYMATTR Value AC 1
SYMBOL res 192 176 R90
WINDOW 0 0 56 VBottom 2
WINDOW 3 32 56 VTop 2
SYMATTR InstName R1
SYMATTR Value 10k
SYMBOL cap 176 192 R0
SYMATTR InstName C1
SYMATTR Value 10n
TEXT 0 512 Left 2 !.ac dec 100 100 1Meg